Version 4
SHEET 1 1348 680
WIRE 656 -256 608 -256
WIRE 752 -256 720 -256
WIRE 608 -176 608 -256
WIRE 640 -176 608 -176
WIRE 752 -176 752 -256
WIRE 752 -176 720 -176
WIRE 224 -128 112 -128
WIRE 400 -128 224 -128
WIRE 400 -112 400 -128
WIRE 112 -16 112 -128
WIRE 128 -16 112 -16
WIRE 400 -16 400 -32
WIRE 608 -16 608 -176
WIRE 608 -16 400 -16
WIRE 640 -16 608 -16
WIRE 224 0 224 -128
WIRE 224 0 192 0
WIRE 400 0 400 -16
WIRE 752 0 752 -176
WIRE 752 0 704 0
WIRE 128 16 112 16
WIRE 640 16 544 16
WIRE 544 80 544 16
WIRE -336 144 -336 128
WIRE 112 144 112 16
WIRE 112 144 -336 144
WIRE -816 208 -816 128
WIRE -336 208 -336 144
WIRE -336 304 -336 288
WIRE -128 304 -336 304
WIRE 32 304 -48 304
WIRE 208 304 112 304
WIRE 752 304 752 0
WIRE 752 304 288 304
WIRE -816 320 -816 288
WIRE -336 320 -336 304
WIRE -816 432 -816 400
WIRE -336 432 -336 400
FLAG -336 48 0
FLAG -336 432 0
FLAG 672 32 0
FLAG 656 -400 0
FLAG 656 -480 +3.3V
FLAG 672 -32 +3.3V
FLAG 544 160 0
FLAG 400 80 0
FLAG 160 32 0
FLAG 160 -32 +3.3V
FLAG -816 48 0
FLAG -816 432 0
SYMBOL current -336 48 R0
WINDOW 123 0 0 Left 0
WINDOW 39 0 0 Left 0
SYMATTR InstName I1
SYMATTR Value SINE(0.0001 0.0000055 240)
SYMBOL res -352 192 R0
SYMATTR InstName R1
SYMATTR Value 16.5k
SYMBOL res -352 304 R0
SYMATTR InstName R2
SYMATTR Value 16.5k
SYMBOL OpAmps\\UniversalOpAmp 672 0 R0
SYMATTR InstName U1
SYMBOL voltage 656 -496 R0
SYMATTR InstName V1
SYMATTR Value 3.3V
SYMBOL voltage 544 64 R0
SYMATTR InstName V2
SYMATTR Value 1.65
SYMBOL res 384 -128 R0
SYMATTR InstName R3
SYMATTR Value 10k
SYMBOL res 384 -16 R0
SYMATTR InstName R4
SYMATTR Value 10k
SYMBOL res 128 288 R90
WINDOW 0 0 56 VBottom 2
WINDOW 3 32 56 VTop 2
SYMATTR InstName R6
SYMATTR Value 40k
SYMBOL res 304 288 R90
WINDOW 0 0 56 VBottom 2
WINDOW 3 32 56 VTop 2
SYMATTR InstName R7
SYMATTR Value 40k
SYMBOL OpAmps\\UniversalOpAmp 160 0 R0
SYMATTR InstName U2
SYMBOL res -32 288 R90
WINDOW 0 0 56 VBottom 2
WINDOW 3 32 56 VTop 2
SYMATTR InstName R5
SYMATTR Value 10k
SYMBOL current -816 48 R0
WINDOW 123 0 0 Left 0
WINDOW 39 0 0 Left 0
SYMATTR InstName I2
SYMATTR Value SINE(0.0001 0.0000055 240)
SYMBOL res -832 192 R0
SYMATTR InstName R8
SYMATTR Value 16.5k
SYMBOL res -832 304 R0
SYMATTR InstName R9
SYMATTR Value 16.5k
SYMBOL res 736 -192 R90
WINDOW 0 0 56 VBottom 2
WINDOW 3 32 56 VTop 2
SYMATTR InstName R10
SYMATTR Value 10000k
SYMBOL cap 720 -272 R90
WINDOW 0 0 32 VBottom 2
WINDOW 3 32 32 VTop 2
SYMATTR InstName C3
SYMATTR Value 50pF
TEXT -370 456 Left 2 !.tran 10ms
