Version 4
SHEET 1 1348 1432
WIRE 640 -96 592 -96
WIRE 752 -96 704 -96
WIRE 592 -16 592 -96
WIRE 640 -16 592 -16
WIRE 752 -16 752 -96
WIRE 752 -16 720 -16
WIRE -336 144 -336 128
WIRE -64 144 -336 144
WIRE 128 144 -64 144
WIRE 368 144 208 144
WIRE 592 144 592 -16
WIRE 592 144 368 144
WIRE 640 144 592 144
WIRE 752 160 752 -16
WIRE 752 160 704 160
WIRE 640 176 544 176
WIRE -336 208 -336 144
WIRE -336 304 -336 288
WIRE 752 304 752 160
WIRE 752 304 -336 304
WIRE -816 320 -816 128
WIRE -336 320 -336 304
WIRE -816 432 -816 400
WIRE -336 432 -336 400
WIRE 640 832 592 832
WIRE 752 832 704 832
WIRE 592 912 592 832
WIRE 640 912 592 912
WIRE 752 912 752 832
WIRE 752 912 720 912
WIRE -336 1072 -336 1056
WIRE -48 1072 -336 1072
WIRE 128 1072 -48 1072
WIRE 256 1072 208 1072
WIRE 368 1072 256 1072
WIRE 592 1072 592 912
WIRE 592 1072 368 1072
WIRE 640 1072 592 1072
WIRE 752 1088 752 912
WIRE 752 1088 704 1088
WIRE 640 1104 544 1104
WIRE -336 1136 -336 1072
WIRE -336 1232 -336 1216
WIRE 752 1232 752 1088
WIRE 752 1232 -336 1232
WIRE -816 1248 -816 1056
WIRE -336 1248 -336 1232
WIRE -816 1360 -816 1328
WIRE -336 1360 -336 1328
FLAG -336 48 0
FLAG -336 432 0
FLAG 672 192 0
FLAG 656 -400 0
FLAG 656 -480 +5V
FLAG 672 128 +5V
FLAG 544 256 0
FLAG -816 48 0
FLAG -816 432 0
FLAG 368 208 0
FLAG -336 976 0
FLAG -336 1360 0
FLAG 672 1120 0
FLAG 672 1056 +5V
FLAG 544 1184 0
FLAG -816 976 0
FLAG -816 1360 0
FLAG 368 1136 0
FLAG 256 1152 0
FLAG -64 144 3.3V-Reg
FLAG -48 1072 5.0V-Reg
SYMBOL current -336 48 R0
WINDOW 123 -15 -77 Left 2
WINDOW 39 0 0 Left 0
WINDOW 3 37 29 Left 2
SYMATTR Value2 AC 3.030303030303030303030303030303e-5
SYMATTR Value SINE(0.0001 0.0000055 240)
SYMATTR InstName I1
SYMBOL res -352 192 R0
SYMATTR InstName R1
SYMATTR Value 16.5k
SYMBOL res -352 304 R0
SYMATTR InstName R2
SYMATTR Value 16.5k
SYMBOL OpAmps\\UniversalOpAmp 672 160 R0
SYMATTR InstName U1
SYMBOL voltage 656 -496 R0
SYMATTR InstName V1
SYMATTR Value 5V
SYMBOL voltage 544 160 R0
SYMATTR InstName V2
SYMATTR Value 3.3V
SYMBOL current -816 48 R0
WINDOW 123 -483 -71 Left 2
WINDOW 39 0 0 Left 0
SYMATTR Value2 AC 3.030303030303030303030303030303e-5
SYMATTR InstName I2
SYMATTR Value SINE(0.0001 0.0000055 240)
SYMBOL res -832 304 R0
SYMATTR InstName R9
SYMATTR Value 33k
SYMBOL res 736 -32 R90
WINDOW 0 0 56 VBottom 2
WINDOW 3 32 56 VTop 2
SYMATTR InstName R10
SYMATTR Value 10Meg
SYMBOL cap 704 -112 R90
WINDOW 0 0 32 VBottom 2
WINDOW 3 32 32 VTop 2
SYMATTR InstName C3
SYMATTR Value 50pF
SYMBOL cap 352 144 R0
SYMATTR InstName C2
SYMATTR Value 100pF
SYMBOL res 224 128 R90
WINDOW 0 0 56 VBottom 2
WINDOW 3 32 56 VTop 2
SYMATTR InstName R3
SYMATTR Value 6.67k
SYMBOL current -336 976 R0
WINDOW 123 -15 -77 Left 2
WINDOW 39 0 0 Left 0
WINDOW 3 38 28 Left 2
SYMATTR Value2 AC 5.0e-5
SYMATTR Value SINE(0.0001 0.0000055 240)
SYMATTR InstName I3
SYMBOL res -352 1120 R0
SYMATTR InstName R4
SYMATTR Value 25k
SYMBOL res -352 1232 R0
SYMATTR InstName R5
SYMATTR Value 25k
SYMBOL OpAmps\\UniversalOpAmp 672 1088 R0
SYMATTR InstName U2
SYMBOL voltage 544 1088 R0
SYMATTR InstName V4
SYMATTR Value 3.3V
SYMBOL current -816 976 R0
WINDOW 123 -12 -71 Left 2
WINDOW 39 0 0 Left 0
SYMATTR Value2 AC 5.0e-5
SYMATTR InstName I4
SYMATTR Value SINE(0.0001 0.0000055 240)
SYMBOL res -832 1232 R0
SYMATTR InstName R7
SYMATTR Value 50k
SYMBOL res 736 896 R90
WINDOW 0 0 56 VBottom 2
WINDOW 3 32 56 VTop 2
SYMATTR InstName R11
SYMATTR Value 10Meg
SYMBOL cap 704 816 R90
WINDOW 0 0 32 VBottom 2
WINDOW 3 32 32 VTop 2
SYMATTR InstName C1
SYMATTR Value 50pF
SYMBOL cap 352 1072 R0
SYMATTR InstName C4
SYMATTR Value 100pF
SYMBOL res 224 1056 R90
WINDOW 0 0 56 VBottom 2
WINDOW 3 32 56 VTop 2
SYMATTR InstName R12
SYMATTR Value 10k
SYMBOL res 272 1168 R180
WINDOW 0 36 76 Left 2
WINDOW 3 36 40 Left 2
SYMATTR InstName R6
SYMATTR Value 20k
TEXT -368 1384 Left 2 !;.tran 10ms
TEXT -368 1416 Left 2 !.ac dec 100 1hz 10ghz
TEXT -64 872 Left 2 ;Resistor divider RM2012B-103/203-PBVW10
